Version 4
SHEET 1 952 680
WIRE 416 -128 256 -128
WIRE 512 -128 416 -128
WIRE 656 -128 512 -128
WIRE 256 -112 256 -128
WIRE 416 -64 416 -128
WIRE 368 -48 320 -48
WIRE 256 -16 256 -32
WIRE 320 -16 320 -48
WIRE 320 -16 256 -16
WIRE 256 0 256 -16
WIRE 656 0 656 -128
WIRE 512 16 512 -128
WIRE 432 32 416 32
WIRE 464 32 432 32
WIRE 432 64 432 32
WIRE 256 80 256 64
WIRE 656 128 656 0
WIRE 512 144 512 112
WIRE 16 160 -48 160
WIRE 112 160 16 160
WIRE 208 160 192 160
WIRE 432 160 432 128
WIRE 16 176 16 160
WIRE 512 192 512 144
WIRE 144 240 112 240
WIRE 192 240 144 240
WIRE 288 240 192 240
WIRE 384 240 368 240
WIRE -48 256 -48 160
WIRE 112 256 112 240
WIRE 192 256 192 240
WIRE 16 272 16 256
WIRE -48 352 -48 336
WIRE 112 352 112 336
WIRE 192 352 192 336
WIRE 256 352 256 176
WIRE 432 352 432 256
WIRE 512 352 512 272
WIRE 656 352 656 208
FLAG 512 352 0
FLAG 656 352 0
FLAG 112 352 0
FLAG 656 0 +48V
FLAG 144 240 Controll
FLAG 512 144 OUT
FLAG 432 352 0
FLAG 192 352 0
FLAG 256 352 0
FLAG -48 352 0
FLAG 16 272 0
SYMBOL pmos 464 112 M180
SYMATTR InstName M1
SYMATTR Value NTD2955
SYMATTR Prefix X
SYMBOL res 240 -128 R0
WINDOW 0 -35 22 Left 2
WINDOW 3 -45 48 Left 2
SYMATTR InstName R1
SYMATTR Value 33
SYMBOL res 208 144 R90
WINDOW 0 0 56 VBottom 2
WINDOW 3 32 56 VTop 2
SYMATTR InstName R4
SYMATTR Value 100
SYMBOL res 496 176 R0
SYMATTR InstName R5
SYMATTR Value 10
SYMBOL voltage 656 112 R0
WINDOW 123 0 0 Left 2
WINDOW 39 24 124 Left 2
SYMATTR SpiceLine Rser=0
SYMATTR InstName V1
SYMATTR Value 48
SYMBOL voltage 112 240 R0
WINDOW 0 -72 55 Left 2
WINDOW 3 -144 165 Left 2
WINDOW 123 0 0 Left 2
WINDOW 39 0 0 Left 2
SYMATTR InstName V2
SYMATTR Value PULSE(0 3.3 0 1n 1n 2.5u 25u 5000)
SYMBOL zener 448 128 R180
WINDOW 0 24 64 Left 2
WINDOW 3 24 0 Left 2
SYMATTR InstName D1
SYMATTR Value DFLZ33
SYMATTR Description Diode
SYMATTR Type diode
SYMBOL nmos 208 80 R0
WINDOW 3 -127 10 Left 2
SYMATTR Value BSS138BK
SYMATTR InstName M2
SYMATTR Prefix X
SYMBOL nmos 384 160 R0
WINDOW 3 -19 105 Left 2
SYMATTR Value BSS138BK
SYMATTR InstName M3
SYMATTR Prefix X
SYMBOL res 384 224 R90
WINDOW 0 0 56 VBottom 2
WINDOW 3 32 56 VTop 2
SYMATTR InstName R3
SYMATTR Value 100
SYMBOL res 176 240 R0
SYMATTR InstName R7
SYMATTR Value 100K
SYMBOL pmos 368 32 M180
SYMATTR InstName M4
SYMATTR Value irlml9303pbf
SYMATTR Prefix X
SYMBOL zener 272 64 R180
WINDOW 0 24 64 Left 2
WINDOW 3 -74 2 Left 2
SYMATTR InstName D2
SYMATTR Value DFLZ33
SYMATTR Description Diode
SYMATTR Type diode
SYMBOL voltage -48 240 R0
WINDOW 0 -72 55 Left 2
WINDOW 3 -351 122 Left 2
WINDOW 123 0 0 Left 2
WINDOW 39 0 0 Left 2
SYMATTR InstName V3
SYMATTR Value PULSE(0 3.3 2.6u 1n 1n 22.3u 25u 5000)
SYMBOL res 0 160 R0
SYMATTR InstName R2
SYMATTR Value 100k
TEXT -32 432 Left 2 !.tran 0 99.004m 98.999m
TEXT 416 408 Left 1 !.inc C:\\DATA\\LTSpice\\3dparty\\NXP\\BCP56-16.prm
TEXT 416 432 Left 1 !.inc C:\\DATA\\LTSpice\\3dparty\\NXP\\BSS138BK_30_01_2012.lib
TEXT 416 384 Left 1 !.inc C:\\DATA\\LTSpice\\3dparty\\OnSemi\\NTD2955.SP3
TEXT 416 448 Left 1 !.inc C:\\DATA\\LTSpice\\3dparty\\IRF\\irlml9303pbf.spi
TEXT 416 464 Left 1 !.inc C:\\DATA\\LTSpice\\3dparty\\AZ23C36.prm
