* C:\DATA\SourceControll\SUF-GitHub\Electronics\suf-electronics-motor-driver\SIM\driver_filtered.asc
XM1 N007 N002 +48V irf5210
D1 N002 +48V BZX84C10L
D2 N003 N004 1N4148
Q1 N001 N004 N002 0 BC546B
Q2 N005 N009 0 0 BC546B
R1 +48V N003 1.2k
R2 N003 N005 4.7k
R3 N002 N006 750 pwr=2
R4 N009 Controll 1.8K
V1 +48V 0 48 Rser=0
V2 Controll 0 PULSE(0 5 0 1n 1n 250n 25u 1000)
D4 N006 N005 1N5819
R6 +48V N001 10
C1 N008 0 1000µ Rser=50m
L1 N007 N008 120µ Rser=35m
D3 0 N007 MBR20100CT
L2 N008 0 560µ Rser=3
D5 0 N010 MBR20100CT
R5 N010 0 50m
.model D D
.lib C:\Program Files (x86)\LTC\LTspiceIV\lib\cmp\standard.dio
.model NPN NPN
.model PNP PNP
.lib C:\Program Files (x86)\LTC\LTspiceIV\lib\cmp\standard.bjt
.inc C:\DATA\LTSpice\3dparty\IRF\irf5210.spi
.tran 25m
.backanno
.end
